<?xml version="1.0" encoding="UTF-8"?>

<!-- generated on 2024-01-06 23:35:30 by Eclipse SUMO netedit Version 1.12.0
<configuration xmlns:xsi="http://www.w3.org/2001/XMLSchema-instance" xsi:noNamespaceSchemaLocation="http://sumo.dlr.de/xsd/netconvertConfiguration.xsd">

    <input>
        <sumo-net-file value="/home/rosen902/Dev/crossingvehicle/sumofiles/simple_tf_noleft.net.xml"/>
    </input>

    <output>
        <output-file value="/home/rosen902/Dev/crossingvehicle/sumofiles/simple_tf_all.xml.net.xml"/>
    </output>

    <processing>
        <geometry.min-radius.fix.railways value="false"/>
        <geometry.max-grade.fix value="false"/>
        <offset.disable-normalization value="true"/>
        <lefthand value="false"/>
    </processing>

    <junctions>
        <no-turnarounds value="true"/>
        <junctions.corner-detail value="5"/>
        <junctions.limit-turn-speed value="5.5"/>
        <rectangular-lane-cut value="false"/>
    </junctions>

    <pedestrian>
        <walkingareas value="false"/>
    </pedestrian>

    <report>
        <aggregate-warnings value="5"/>
    </report>

</configuration>
-->

<net version="1.9" junctionCornerDetail="5" limitTurnSpeed="5.50" xmlns:xsi="http://www.w3.org/2001/XMLSchema-instance" xsi:noNamespaceSchemaLocation="http://sumo.dlr.de/xsd/net_file.xsd">

    <location netOffset="0.00,0.00" convBoundary="50.00,-50.00,150.00,50.00" origBoundary="-10000000000.00,-10000000000.00,10000000000.00,10000000000.00" projParameter="!"/>

    <edge id=":J1_0" function="internal">
        <lane id=":J1_0_0" index="0" speed="7.33" length="11.73" shape="95.20,10.40 94.85,6.55 93.80,3.80 92.05,2.15 89.60,1.60"/>
    </edge>
    <edge id=":J1_1" function="internal">
        <lane id=":J1_1_0" index="0" speed="13.89" length="21.09" shape="95.20,10.40 95.70,3.63 96.80,-1.87 97.90,-6.45 98.40,-10.40"/>
    </edge>
    <edge id=":J1_2" function="internal">
        <lane id=":J1_2_0" index="0" speed="9.26" length="7.32" shape="98.40,10.40 99.15,5.15 100.19,3.42"/>
    </edge>
    <edge id=":J1_12" function="internal">
        <lane id=":J1_12_0" index="0" speed="9.26" length="12.03" shape="100.19,3.42 101.40,1.40 105.15,-0.85 110.40,-1.60"/>
    </edge>
    <edge id=":J1_3" function="internal">
        <lane id=":J1_3_0" index="0" speed="7.33" length="11.73" shape="110.40,4.80 106.55,5.15 103.80,6.20 102.15,7.95 101.60,10.40"/>
    </edge>
    <edge id=":J1_4" function="internal">
        <lane id=":J1_4_0" index="0" speed="13.89" length="21.09" shape="110.40,4.80 103.63,4.30 98.12,3.20 93.55,2.10 89.60,1.60"/>
    </edge>
    <edge id=":J1_5" function="internal">
        <lane id=":J1_5_0" index="0" speed="9.26" length="7.32" shape="110.40,1.60 105.15,0.85 103.42,-0.19"/>
    </edge>
    <edge id=":J1_13" function="internal">
        <lane id=":J1_13_0" index="0" speed="9.26" length="12.03" shape="103.42,-0.19 101.40,-1.40 99.15,-5.15 98.40,-10.40"/>
    </edge>
    <edge id=":J1_6" function="internal">
        <lane id=":J1_6_0" index="0" speed="7.33" length="11.73" shape="104.80,-10.40 105.15,-6.55 106.20,-3.80 107.95,-2.15 110.40,-1.60"/>
    </edge>
    <edge id=":J1_7" function="internal">
        <lane id=":J1_7_0" index="0" speed="13.89" length="21.09" shape="104.80,-10.40 104.30,-3.63 103.20,1.88 102.10,6.45 101.60,10.40"/>
    </edge>
    <edge id=":J1_8" function="internal">
        <lane id=":J1_8_0" index="0" speed="9.26" length="7.32" shape="101.60,-10.40 100.85,-5.15 99.81,-3.42"/>
    </edge>
    <edge id=":J1_14" function="internal">
        <lane id=":J1_14_0" index="0" speed="9.26" length="12.03" shape="99.81,-3.42 98.60,-1.40 94.85,0.85 89.60,1.60"/>
    </edge>
    <edge id=":J1_9" function="internal">
        <lane id=":J1_9_0" index="0" speed="7.33" length="11.73" shape="89.60,-4.80 93.45,-5.15 96.20,-6.20 97.85,-7.95 98.40,-10.40"/>
    </edge>
    <edge id=":J1_10" function="internal">
        <lane id=":J1_10_0" index="0" speed="13.89" length="21.09" shape="89.60,-4.80 96.37,-4.30 101.87,-3.20 106.45,-2.10 110.40,-1.60"/>
    </edge>
    <edge id=":J1_11" function="internal">
        <lane id=":J1_11_0" index="0" speed="9.26" length="7.32" shape="89.60,-1.60 94.85,-0.85 96.58,0.19"/>
    </edge>
    <edge id=":J1_15" function="internal">
        <lane id=":J1_15_0" index="0" speed="9.26" length="12.03" shape="96.58,0.19 98.60,1.40 100.85,5.15 101.60,10.40"/>
    </edge>

    <edge id="-E0" from="J1" to="J0" priority="-1">
        <lane id="-E0_0" index="0" speed="13.89" length="39.60" shape="89.60,1.60 50.00,1.60"/>
    </edge>
    <edge id="-E1" from="J2" to="J1" priority="-1">
        <lane id="-E1_0" index="0" speed="13.89" length="39.60" shape="150.00,4.80 110.40,4.80"/>
        <lane id="-E1_1" index="1" speed="13.89" length="39.60" shape="150.00,1.60 110.40,1.60"/>
    </edge>
    <edge id="-E2" from="J1" to="J3" priority="-1">
        <lane id="-E2_0" index="0" speed="13.89" length="39.60" shape="101.60,10.40 101.60,50.00"/>
    </edge>
    <edge id="-E3" from="J4" to="J1" priority="-1">
        <lane id="-E3_0" index="0" speed="13.89" length="39.60" shape="104.80,-50.00 104.80,-10.40"/>
        <lane id="-E3_1" index="1" speed="13.89" length="39.60" shape="101.60,-50.00 101.60,-10.40"/>
    </edge>
    <edge id="E0" from="J0" to="J1" priority="-1">
        <lane id="E0_0" index="0" speed="13.89" length="39.60" shape="50.00,-4.80 89.60,-4.80"/>
        <lane id="E0_1" index="1" speed="13.89" length="39.60" shape="50.00,-1.60 89.60,-1.60"/>
    </edge>
    <edge id="E1" from="J1" to="J2" priority="-1">
        <lane id="E1_0" index="0" speed="13.89" length="39.60" shape="110.40,-1.60 150.00,-1.60"/>
    </edge>
    <edge id="E2" from="J3" to="J1" priority="-1">
        <lane id="E2_0" index="0" speed="13.89" length="39.60" shape="95.20,50.00 95.20,10.40"/>
        <lane id="E2_1" index="1" speed="13.89" length="39.60" shape="98.40,50.00 98.40,10.40"/>
    </edge>
    <edge id="E3" from="J1" to="J4" priority="-1" spreadType="center" shape="98.40,0.00 98.40,-50.05">
        <lane id="E3_0" index="0" speed="13.89" length="39.65" shape="98.40,-10.40 98.40,-50.05"/>
    </edge>

    <tlLogic id="J1" type="static" programID="1" offset="0">
        <phase duration="33" state="GGgrrrGGgrrr"/>
        <phase duration="3"  state="yygrrryygrrr"/>
        <phase duration="6"  state="rrGrrrrrGrrr"/>
        <phase duration="3"  state="rryrrrrryrrr"/>
        <phase duration="33" state="rrrGGgrrrGGg"/>
        <phase duration="3"  state="rrryygrrryyg"/>
        <phase duration="6"  state="rrrrrGrrrrrG"/>
        <phase duration="3"  state="rrrrryrrrrry"/>
    </tlLogic>

    <junction id="J0" type="dead_end" x="50.00" y="0.00" incLanes="-E0_0" intLanes="" shape="50.00,0.00 50.00,3.20 50.00,0.00"/>
    <junction id="J1" type="traffic_light" x="100.00" y="0.00" incLanes="E2_0 E2_1 -E1_0 -E1_1 -E3_0 -E3_1 E0_0 E0_1" intLanes=":J1_0_0 :J1_1_0 :J1_12_0 :J1_3_0 :J1_4_0 :J1_13_0 :J1_6_0 :J1_7_0 :J1_14_0 :J1_9_0 :J1_10_0 :J1_15_0" shape="93.60,10.40 103.20,10.40 104.00,8.18 105.00,7.40 106.40,6.84 108.20,6.51 110.40,6.40 110.40,-3.20 108.18,-4.00 107.40,-5.00 106.84,-6.40 106.51,-8.20 106.40,-10.40 96.80,-10.40 96.00,-8.18 95.00,-7.40 93.60,-6.84 91.80,-6.51 89.60,-6.40 89.60,3.20 91.82,4.00 92.60,5.00 93.16,6.40 93.49,8.20">
        <request index="0"  response="000000000000" foes="000100010000" cont="0"/>
        <request index="1"  response="100000100000" foes="111100110000" cont="0"/>
        <request index="2"  response="100011100000" foes="110011110000" cont="1"/>
        <request index="3"  response="000010000000" foes="100010000000" cont="0"/>
        <request index="4"  response="000110000111" foes="100110000111" cont="0"/>
        <request index="5"  response="011110000110" foes="011110000110" cont="1"/>
        <request index="6"  response="000000000000" foes="010000000100" cont="0"/>
        <request index="7"  response="100000100000" foes="110000111100" cont="0"/>
        <request index="8"  response="100000100011" foes="110000110011" cont="1"/>
        <request index="9"  response="000000000010" foes="000000100010" cont="0"/>
        <request index="10" response="000111000110" foes="000111100110" cont="0"/>
        <request index="11" response="000110011110" foes="000110011110" cont="1"/>
    </junction>
    <junction id="J2" type="dead_end" x="150.00" y="0.00" incLanes="E1_0" intLanes="" shape="150.00,0.00 150.00,-3.20 150.00,0.00"/>
    <junction id="J3" type="dead_end" x="100.00" y="50.00" incLanes="-E2_0" intLanes="" shape="100.00,50.00 103.20,50.00 100.00,50.00"/>
    <junction id="J4" type="dead_end" x="100.00" y="-50.00" incLanes="E3_0" intLanes="" shape="100.00,-50.00 96.80,-50.00 100.00,-50.00"/>

    <junction id=":J1_12_0" type="internal" x="100.19" y="3.42" incLanes=":J1_2_0 -E3_0" intLanes=":J1_4_0 :J1_5_0 :J1_6_0 :J1_7_0 :J1_10_0 :J1_11_0"/>
    <junction id=":J1_13_0" type="internal" x="103.42" y="-0.19" incLanes=":J1_5_0 E0_0" intLanes=":J1_1_0 :J1_2_0 :J1_7_0 :J1_8_0 :J1_9_0 :J1_10_0"/>
    <junction id=":J1_14_0" type="internal" x="99.81" y="-3.42" incLanes=":J1_8_0 E2_0" intLanes=":J1_0_0 :J1_1_0 :J1_4_0 :J1_5_0 :J1_10_0 :J1_11_0"/>
    <junction id=":J1_15_0" type="internal" x="96.58" y="0.19" incLanes=":J1_11_0 -E1_0" intLanes=":J1_1_0 :J1_2_0 :J1_3_0 :J1_4_0 :J1_7_0 :J1_8_0"/>

    <connection from="-E1" to="-E2" fromLane="0" toLane="0" via=":J1_3_0" tl="J1" linkIndex="3" dir="r" state="o"/>
    <connection from="-E1" to="-E0" fromLane="0" toLane="0" via=":J1_4_0" tl="J1" linkIndex="4" dir="s" state="o"/>
    <connection from="-E1" to="E3" fromLane="1" toLane="0" via=":J1_5_0" tl="J1" linkIndex="5" dir="l" state="o"/>
    <connection from="-E3" to="E1" fromLane="0" toLane="0" via=":J1_6_0" tl="J1" linkIndex="6" dir="r" state="O"/>
    <connection from="-E3" to="-E2" fromLane="0" toLane="0" via=":J1_7_0" tl="J1" linkIndex="7" dir="s" state="O"/>
    <connection from="-E3" to="-E0" fromLane="1" toLane="0" via=":J1_8_0" tl="J1" linkIndex="8" dir="l" state="o"/>
    <connection from="E0" to="E3" fromLane="0" toLane="0" via=":J1_9_0" tl="J1" linkIndex="9" dir="r" state="o"/>
    <connection from="E0" to="E1" fromLane="0" toLane="0" via=":J1_10_0" tl="J1" linkIndex="10" dir="s" state="o"/>
    <connection from="E0" to="-E2" fromLane="1" toLane="0" via=":J1_11_0" tl="J1" linkIndex="11" dir="l" state="o"/>
    <connection from="E2" to="-E0" fromLane="0" toLane="0" via=":J1_0_0" tl="J1" linkIndex="0" dir="r" state="O"/>
    <connection from="E2" to="E3" fromLane="0" toLane="0" via=":J1_1_0" tl="J1" linkIndex="1" dir="s" state="O"/>
    <connection from="E2" to="E1" fromLane="1" toLane="0" via=":J1_2_0" tl="J1" linkIndex="2" dir="l" state="o"/>

    <connection from=":J1_0" to="-E0" fromLane="0" toLane="0" dir="r" state="M"/>
    <connection from=":J1_1" to="E3" fromLane="0" toLane="0" dir="s" state="M"/>
    <connection from=":J1_2" to="E1" fromLane="0" toLane="0" via=":J1_12_0" dir="l" state="m"/>
    <connection from=":J1_12" to="E1" fromLane="0" toLane="0" dir="l" state="M"/>
    <connection from=":J1_3" to="-E2" fromLane="0" toLane="0" dir="r" state="M"/>
    <connection from=":J1_4" to="-E0" fromLane="0" toLane="0" dir="s" state="M"/>
    <connection from=":J1_5" to="E3" fromLane="0" toLane="0" via=":J1_13_0" dir="l" state="m"/>
    <connection from=":J1_13" to="E3" fromLane="0" toLane="0" dir="l" state="M"/>
    <connection from=":J1_6" to="E1" fromLane="0" toLane="0" dir="r" state="M"/>
    <connection from=":J1_7" to="-E2" fromLane="0" toLane="0" dir="s" state="M"/>
    <connection from=":J1_8" to="-E0" fromLane="0" toLane="0" via=":J1_14_0" dir="l" state="m"/>
    <connection from=":J1_14" to="-E0" fromLane="0" toLane="0" dir="l" state="M"/>
    <connection from=":J1_9" to="E3" fromLane="0" toLane="0" dir="r" state="M"/>
    <connection from=":J1_10" to="E1" fromLane="0" toLane="0" dir="s" state="M"/>
    <connection from=":J1_11" to="-E2" fromLane="0" toLane="0" via=":J1_15_0" dir="l" state="m"/>
    <connection from=":J1_15" to="-E2" fromLane="0" toLane="0" dir="l" state="M"/>

</net>
